@<TRIPOS>MOLECULE
LIG
   12    12     1     0     0
SMALL
bcc


@<TRIPOS>ATOM
      1 C1          22.7790   -26.1120    -5.8890 ca         1 LIG      -0.130000
      2 C2          22.0180   -27.2470    -5.5850 ca         1 LIG      -0.130000
      3 C3          21.5740   -27.4620    -4.2760 ca         1 LIG      -0.130000
      4 C4          21.8920   -26.5440    -3.2700 ca         1 LIG      -0.130000
      5 C5          22.6530   -25.4090    -3.5730 ca         1 LIG      -0.130000
      6 C6          23.0970   -25.1930    -4.8830 ca         1 LIG      -0.130000
      7 H1          23.1230   -25.9450    -6.9060 ha         1 LIG       0.130000
      8 H2          21.7720   -27.9600    -6.3660 ha         1 LIG       0.130000
      9 H3          20.9830   -28.3430    -4.0410 ha         1 LIG       0.130000
     10 H4          21.5480   -26.7110    -2.2530 ha         1 LIG       0.130000
     11 H5          22.9000   -24.6960    -2.7920 ha         1 LIG       0.130000
     12 H6          23.6880   -24.3120    -5.1180 ha         1 LIG       0.130000
@<TRIPOS>BOND
     1     1     2 ar  
     2     1     6 ar  
     3     1     7 1   
     4     2     3 ar  
     5     2     8 1   
     6     3     4 ar  
     7     3     9 1   
     8     4     5 ar  
     9     4    10 1   
    10     5     6 ar  
    11     5    11 1   
    12     6    12 1   
@<TRIPOS>SUBSTRUCTURE
     1 LIG         1 TEMP              0 ****  ****    0 ROOT
